
OS:Version,
  {8b1e0e94-ea0e-4029-b450-92e8b2ffcaf2}, !- Handle
  3.8.0;                                  !- Version Identifier

OS:Schedule:Constant,
  {2d1835b9-435a-489f-aa6b-ddd1b3aa0bcb}, !- Handle
  Always On Discrete,                     !- Name
  {7b1204a7-b34a-4b6a-af18-0e6bfdd9a6c1}, !- Schedule Type Limits Name
  1;                                      !- Value

OS:ScheduleTypeLimits,
  {7b1204a7-b34a-4b6a-af18-0e6bfdd9a6c1}, !- Handle
  Always On Discrete Limits,              !- Name
  0,                                      !- Lower Limit Value
  1,                                      !- Upper Limit Value
  Discrete,                               !- Numeric Type
  Availability;                           !- Unit Type

OS:ClimateZones,
  {8a3ac41c-57d4-48e4-a48e-1f232e262211}, !- Handle
  ASHRAE,                                 !- Climate Zone Institution Name 1
  ANSI/ASHRAE Standard 169,               !- Climate Zone Document Name 1
  2006,                                   !- Climate Zone Document Year 1
  ,                                       !- Climate Zone Value 1
  CEC,                                    !- Climate Zone Institution Name 2
  California Climate Zone Descriptions,   !- Climate Zone Document Name 2
  1995,                                   !- Climate Zone Document Year 2
  ;                                       !- Climate Zone Value 2

OS:LifeCycleCost:Parameters,
  {1d4d0f18-e6dd-45c8-896c-f4f2a89e6ae5}, !- Handle
  FEMP,                                   !- Analysis Type
  ,                                       !- Discounting Convention
  ,                                       !- Inflation Approach
  ,                                       !- Real Discount Rate
  ,                                       !- Nominal Discount Rate
  ,                                       !- Inflation
  ,                                       !- Base Date Month
  ,                                       !- Base Date Year
  ,                                       !- Service Date Month
  ,                                       !- Service Date Year
  ,                                       !- Length of Study Period in Years
  ,                                       !- Tax Rate
  ,                                       !- Depreciation Method
  Yes;                                    !- Use NIST Fuel Escalation Rates

OS:YearDescription,
  {c1349a5a-d7e1-4ed9-8e5b-24480649c25c}, !- Handle
  ,                                       !- Calendar Year
  Sunday,                                 !- Day of Week for Start Day
  ;                                       !- Is Leap Year

OS:RadianceParameters,
  {8297fd56-36de-4b79-a182-b7636f4ae3e3}, !- Handle
  1,                                      !- Accumulated Rays per Record
  0,                                      !- Direct Threshold
  1,                                      !- Direct Certainty
  1,                                      !- Direct Jitter
  1,                                      !- Direct Pretest
  6,                                      !- Ambient Bounces VMX
  2,                                      !- Ambient Bounces DMX
  4050,                                   !- Ambient Divisions VMX
  512,                                    !- Ambient Divisions DMX
  256,                                    !- Ambient Supersamples
  0.001,                                  !- Limit Weight VMX
  0.001,                                  !- Limit Weight DMX
  500,                                    !- Klems Sampling Density
  146;                                    !- Sky Discretization Resolution

OS:SimulationControl,
  {7c57f4fc-548f-44e7-a438-1feca6a75629}, !- Handle
  Yes,                                    !- Do Zone Sizing Calculation
  Yes,                                    !- Do System Sizing Calculation
  Yes,                                    !- Do Plant Sizing Calculation
  No,                                     !- Run Simulation for Sizing Periods
  ,                                       !- Run Simulation for Weather File Run Periods
  ,                                       !- Loads Convergence Tolerance Value {W}
  ,                                       !- Temperature Convergence Tolerance Value {deltaC}
  ,                                       !- Solar Distribution
  ,                                       !- Maximum Number of Warmup Days
  10,                                     !- Minimum Number of Warmup Days
  Yes;                                    !- Do HVAC Sizing Simulation for Sizing Periods

OS:Sizing:Parameters,
  {ee365675-827e-489e-9a24-0f596988dec4}, !- Handle
  1.25,                                   !- Heating Sizing Factor
  1.15;                                   !- Cooling Sizing Factor

OS:ProgramControl,
  {8a7b938e-cdcb-40af-82b1-79c267c36bae}; !- Handle

OS:Timestep,
  {31824a36-2f0f-4919-a534-cdb00e20d2e0}, !- Handle
  6;                                      !- Number of Timesteps per Hour

OS:OutputControl:ReportingTolerances,
  {275082a5-6cfd-4756-972e-8810ab253e29}; !- Handle

OS:ConvergenceLimits,
  {fcca1605-8471-4f2f-a485-a59582311771}; !- Handle

OS:ShadowCalculation,
  {d875de65-75c7-4d9d-883e-07bd79421b67}, !- Handle
  PolygonClipping,                        !- Shading Calculation Method
  ,                                       !- Shading Calculation Update Frequency Method
  7,                                      !- Shading Calculation Update Frequency
  15000,                                  !- Maximum Figures in Shadow Overlap Calculations
  ,                                       !- Polygon Clipping Algorithm
  512,                                    !- Pixel Counting Resolution
  ,                                       !- Sky Diffuse Modeling Algorithm
  No,                                     !- Output External Shading Calculation Results
  No,                                     !- Disable Self-Shading Within Shading Zone Groups
  No;                                     !- Disable Self-Shading From Shading Zone Groups to Other Zones

OS:SurfaceConvectionAlgorithm:Inside,
  {5add9a33-b760-4e82-a0f9-3ae0e369b9c4}, !- Handle
  TARP;                                   !- Algorithm

OS:SurfaceConvectionAlgorithm:Outside,
  {0257be16-14fc-418e-bc73-178201ccc4ec}, !- Handle
  DOE-2;                                  !- Algorithm

OS:HeatBalanceAlgorithm,
  {5a22c4c4-a6a6-4769-b0a8-f79498f98a6d}, !- Handle
  ConductionTransferFunction,             !- Algorithm
  200;                                    !- Surface Temperature Upper Limit {C}

OS:ZoneAirHeatBalanceAlgorithm,
  {24c912f8-6f7f-4792-8ea0-a8d47b3c41a1}, !- Handle
  AnalyticalSolution,                     !- Algorithm
  ,                                       !- Do Space Heat Balance for Sizing
  ;                                       !- Do Space Heat Balance for Simulation

OS:ZoneAirContaminantBalance,
  {07e7d420-4b9b-4760-8a70-01b36aa6074f}; !- Handle

OS:ZoneCapacitanceMultiplier:ResearchSpecial,
  {91056672-db13-4057-9cb7-7ac44d24bfc5}, !- Handle
  ,                                       !- Temperature Capacity Multiplier
  ,                                       !- Humidity Capacity Multiplier
  ;                                       !- Carbon Dioxide Capacity Multiplier

OS:RunPeriod,
  {17c33f47-c9b9-463a-84bc-12596f349148}, !- Handle
  Run Period 1,                           !- Name
  1,                                      !- Begin Month
  1,                                      !- Begin Day of Month
  12,                                     !- End Month
  31,                                     !- End Day of Month
  ,                                       !- Use Weather File Holidays and Special Days
  ,                                       !- Use Weather File Daylight Saving Period
  ,                                       !- Apply Weekend Holiday Rule
  ,                                       !- Use Weather File Rain Indicators
  ,                                       !- Use Weather File Snow Indicators
  ;                                       !- Number of Times Runperiod to be Repeated

OS:Building,
  {e0ce3521-4e53-4eca-8017-2f1c8dec2b50}, !- Handle
  Building 1,                             !- Name
  ,                                       !- Building Sector Type
  -0,                                     !- North Axis {deg}
  ,                                       !- Nominal Floor to Floor Height {m}
  {ec75311e-df1a-49e5-9f8d-455e49377c21}, !- Space Type Name
  {4a56ad05-3b27-4c96-a2e1-59a2bb16e614}, !- Default Construction Set Name
  ,                                       !- Default Schedule Set Name
  ,                                       !- Standards Number of Stories
  ,                                       !- Standards Number of Above Ground Stories
  90.1-2007,                              !- Standards Template
  ,                                       !- Standards Building Type
  ,                                       !- Standards Number of Living Units
  ,                                       !- Relocatable
  ;                                       !- Nominal Floor to Ceiling Height {m}

OS:Facility,
  {b6e6be84-f909-42a5-9deb-ef70c0296721}; !- Handle

OS:Site,
  {f38b0e3c-04e1-4822-940e-9b46c436222c}, !- Handle
  Guangzhou,                              !- Name
  23.17,                                  !- Latitude {deg}
  113.33,                                 !- Longitude {deg}
  8,                                      !- Time Zone {hr}
  41,                                     !- Elevation {m}
  ;                                       !- Terrain

OS:Rendering:Color,
  {f166cf6c-3f66-4a31-80e6-cc1350addbaf}, !- Handle
  Rendering Color 1,                      !- Name
  230,                                    !- Rendering Red Value
  157,                                    !- Rendering Green Value
  120;                                    !- Rendering Blue Value

OS:Lights:Definition,
  {929de767-04bf-408e-9a80-276ca91f66c8}, !- Handle
  189.1-2009 - Office - BreakRoom - CZ4-8 Lights Definition, !- Name
  Watts/Area,                             !- Design Level Calculation Method
  ,                                       !- Lighting Level {W}
  11.6250232500465,                       !- Watts per Space Floor Area {W/m2}
  ;                                       !- Watts per Person {W/person}

OS:Schedule:Ruleset,
  {d67392b2-d9ea-41b8-a319-c53563960bd7}, ! Handle
  Office Bldg Light,                      ! Name
  {9ebe5148-7fe5-43e5-b3b7-a2b4c2132d15}, ! Schedule Type Limits Name
  {91d17655-0fde-41be-9c6c-c5c46fd5f9f3}, ! Default Day Schedule Name
  {9f120484-9ba3-42b9-aafa-2f31032615de}, ! Summer Design Day Schedule Name
  {310cefcc-eb09-45b9-8b26-9324f35f3eda}; ! Winter Design Day Schedule Name

OS:ScheduleTypeLimits,
  {9ebe5148-7fe5-43e5-b3b7-a2b4c2132d15}, ! Handle
  Fraction,                               ! Name
  0,                                      ! Lower Limit Value
  1,                                      ! Upper Limit Value
  CONTINUOUS;                             ! Numeric Type

OS:Schedule:Day,
  {91d17655-0fde-41be-9c6c-c5c46fd5f9f3}, !- Handle
  Office Bldg Light Default Schedule,     !- Name
  {9ebe5148-7fe5-43e5-b3b7-a2b4c2132d15}, !- Schedule Type Limits Name
  No,                                     !- Interpolate to Timestep
  5,                                      !- Hour 1
  0,                                      !- Minute 1
  0.05,                                   !- Value Until Time 1
  7,                                      !- Hour 2
  0,                                      !- Minute 2
  0.1,                                    !- Value Until Time 2
  8,                                      !- Hour 3
  0,                                      !- Minute 3
  0.3,                                    !- Value Until Time 3
  17,                                     !- Hour 4
  0,                                      !- Minute 4
  0.9,                                    !- Value Until Time 4
  18,                                     !- Hour 5
  0,                                      !- Minute 5
  0.7,                                    !- Value Until Time 5
  20,                                     !- Hour 6
  0,                                      !- Minute 6
  0.5,                                    !- Value Until Time 6
  22,                                     !- Hour 7
  0,                                      !- Minute 7
  0.3,                                    !- Value Until Time 7
  23,                                     !- Hour 8
  0,                                      !- Minute 8
  0.1,                                    !- Value Until Time 8
  24,                                     !- Hour 9
  0,                                      !- Minute 9
  0.05;                                   !- Value Until Time 9

OS:Schedule:Day,
  {9f120484-9ba3-42b9-aafa-2f31032615de}, !- Handle
  Office Bldg Light Summer Design Day,    !- Name
  {9ebe5148-7fe5-43e5-b3b7-a2b4c2132d15}, !- Schedule Type Limits Name
  No,                                     !- Interpolate to Timestep
  24,                                     !- Hour 1
  0,                                      !- Minute 1
  1;                                      !- Value Until Time 1

OS:Schedule:Day,
  {310cefcc-eb09-45b9-8b26-9324f35f3eda}, !- Handle
  Office Bldg Light Winter Design Day,    !- Name
  {9ebe5148-7fe5-43e5-b3b7-a2b4c2132d15}, !- Schedule Type Limits Name
  No,                                     !- Interpolate to Timestep
  24,                                     !- Hour 1
  0,                                      !- Minute 1
  0;                                      !- Value Until Time 1

OS:Schedule:Rule,
  {c113daf9-c245-4e5b-af3f-72e4773d5899}, !- Handle
  Office Bldg Light Rule 1,               !- Name
  {d67392b2-d9ea-41b8-a319-c53563960bd7}, !- Schedule Ruleset Name
  0,                                      !- Rule Order
  {ed7808cb-ef65-413e-aea7-280d03517338}, !- Day Schedule Name
  Yes,                                    !- Apply Sunday
  No,                                     !- Apply Monday
  No,                                     !- Apply Tuesday
  No,                                     !- Apply Wednesday
  No,                                     !- Apply Thursday
  No,                                     !- Apply Friday
  No,                                     !- Apply Saturday
  DateRange,                              !- Date Specification Type
  1,                                      !- Start Month
  1,                                      !- Start Day
  12,                                     !- End Month
  31;                                     !- End Day

OS:Schedule:Day,
  {ed7808cb-ef65-413e-aea7-280d03517338}, !- Handle
  Office Bldg Light Rule 1 Day Schedule,  !- Name
  {9ebe5148-7fe5-43e5-b3b7-a2b4c2132d15}, !- Schedule Type Limits Name
  No,                                     !- Interpolate to Timestep
  24,                                     !- Hour 1
  0,                                      !- Minute 1
  0.050000000000000003;                   !- Value Until Time 1

OS:Schedule:Rule,
  {5c9e1b73-a5b6-4ea4-b7bb-e16f82fdc79f}, !- Handle
  Office Bldg Light Rule 2,               !- Name
  {d67392b2-d9ea-41b8-a319-c53563960bd7}, !- Schedule Ruleset Name
  1,                                      !- Rule Order
  {f1a12eb9-8b0d-4091-bd55-1837cf7f09e0}, !- Day Schedule Name
  No,                                     !- Apply Sunday
  No,                                     !- Apply Monday
  No,                                     !- Apply Tuesday
  No,                                     !- Apply Wednesday
  No,                                     !- Apply Thursday
  No,                                     !- Apply Friday
  Yes,                                    !- Apply Saturday
  DateRange,                              !- Date Specification Type
  1,                                      !- Start Month
  1,                                      !- Start Day
  12,                                     !- End Month
  31;                                     !- End Day

OS:Schedule:Day,
  {f1a12eb9-8b0d-4091-bd55-1837cf7f09e0}, !- Handle
  Office Bldg Light Rule 2 Day Schedule,  !- Name
  {9ebe5148-7fe5-43e5-b3b7-a2b4c2132d15}, !- Schedule Type Limits Name
  No,                                     !- Interpolate to Timestep
  6,                                      !- Hour 1
  0,                                      !- Minute 1
  0.050000000000000003,                   !- Value Until Time 1
  8,                                      !- Hour 2
  0,                                      !- Minute 2
  0.10000000000000001,                    !- Value Until Time 2
  14,                                     !- Hour 3
  0,                                      !- Minute 3
  0.5,                                    !- Value Until Time 3
  17,                                     !- Hour 4
  0,                                      !- Minute 4
  0.14999999999999999,                    !- Value Until Time 4
  24,                                     !- Hour 5
  0,                                      !- Minute 5
  0.050000000000000003;                   !- Value Until Time 5

OS:DesignSpecification:OutdoorAir,
  {6defe9ff-9cec-4ba6-99ad-7e9b65cac2d7}, !- Handle
  189.1-2009 - Office - BreakRoom - CZ4-8 Ventilation, !- Name
  Sum,                                    !- Outdoor Air Method
  0.007079211648,                         !- Outdoor Air Flow per Person {m3/s-person}
  ,                                       !- Outdoor Air Flow per Floor Area {m3/s-m2}
  ,                                       !- Outdoor Air Flow Rate {m3/s}
  ,                                       !- Outdoor Air Flow Air Changes per Hour {1/hr}
  ;                                       !- Outdoor Air Flow Rate Fraction Schedule Name

OS:People:Definition,
  {e3eb1649-0445-4bd9-b2b4-406b0296177a}, !- Handle
  189.1-2009 - Office - BreakRoom - CZ4-8 People Definition, !- Name
  People/Area,                            !- Number of People Calculation Method
  ,                                       !- Number of People {people}
  0.538195520835486,                      !- People per Space Floor Area {person/m2}
  ,                                       !- Space Floor Area per Person {m2/person}
  0.3;                                    !- Fraction Radiant

OS:Schedule:Ruleset,
  {b67da961-8ace-4cf7-8c48-812f7b68f20a}, ! Handle
  Office Misc Occ,                        ! Name
  {9ebe5148-7fe5-43e5-b3b7-a2b4c2132d15}, ! Schedule Type Limits Name
  {571893bc-4bd4-4bac-a8d9-c72b63f8d1e5}, ! Default Day Schedule Name
  {d7d2de19-fe13-4c51-8d79-3569ef650bfb}, ! Summer Design Day Schedule Name
  {3cb120ef-0aa1-4203-bb9b-3d927a2a8048}; ! Winter Design Day Schedule Name

OS:Schedule:Day,
  {571893bc-4bd4-4bac-a8d9-c72b63f8d1e5}, !- Handle
  Office Bldg Occ Default Schedule 1,     !- Name
  {9ebe5148-7fe5-43e5-b3b7-a2b4c2132d15}, !- Schedule Type Limits Name
  No,                                     !- Interpolate to Timestep
  6,                                      !- Hour 1
  0,                                      !- Minute 1
  0,                                      !- Value Until Time 1
  7,                                      !- Hour 2
  0,                                      !- Minute 2
  0.100000001490116,                      !- Value Until Time 2
  8,                                      !- Hour 3
  0,                                      !- Minute 3
  0.200000002980232,                      !- Value Until Time 3
  20,                                     !- Hour 4
  0,                                      !- Minute 4
  0.400000005960464,                      !- Value Until Time 4
  22,                                     !- Hour 5
  0,                                      !- Minute 5
  0.100000001490116,                      !- Value Until Time 5
  24,                                     !- Hour 6
  0,                                      !- Minute 6
  0.0500000007450581;                     !- Value Until Time 6

OS:Schedule:Day,
  {d7d2de19-fe13-4c51-8d79-3569ef650bfb}, !- Handle
  Office Bldg Occ Summer Design Day 1,    !- Name
  {9ebe5148-7fe5-43e5-b3b7-a2b4c2132d15}, !- Schedule Type Limits Name
  No,                                     !- Interpolate to Timestep
  6,                                      !- Hour 1
  0,                                      !- Minute 1
  0,                                      !- Value Until Time 1
  22,                                     !- Hour 2
  0,                                      !- Minute 2
  1,                                      !- Value Until Time 2
  24,                                     !- Hour 3
  0,                                      !- Minute 3
  0.050000000000000003;                   !- Value Until Time 3

OS:Schedule:Day,
  {3cb120ef-0aa1-4203-bb9b-3d927a2a8048}, !- Handle
  Office Bldg Occ Winter Design Day 1,    !- Name
  {9ebe5148-7fe5-43e5-b3b7-a2b4c2132d15}, !- Schedule Type Limits Name
  No,                                     !- Interpolate to Timestep
  24,                                     !- Hour 1
  0,                                      !- Minute 1
  0;                                      !- Value Until Time 1

OS:Schedule:Rule,
  {845e4f34-e15f-45cd-b93c-63400b37b3c2}, !- Handle
  Office Misc Occ Rule 1,                 !- Name
  {b67da961-8ace-4cf7-8c48-812f7b68f20a}, !- Schedule Ruleset Name
  0,                                      !- Rule Order
  {a6e196ca-19a4-452e-8b72-2f76dfee3883}, !- Day Schedule Name
  Yes,                                    !- Apply Sunday
  No,                                     !- Apply Monday
  No,                                     !- Apply Tuesday
  No,                                     !- Apply Wednesday
  No,                                     !- Apply Thursday
  No,                                     !- Apply Friday
  No,                                     !- Apply Saturday
  DateRange,                              !- Date Specification Type
  1,                                      !- Start Month
  1,                                      !- Start Day
  12,                                     !- End Month
  31;                                     !- End Day

OS:Schedule:Day,
  {a6e196ca-19a4-452e-8b72-2f76dfee3883}, !- Handle
  Office Bldg Occ Rule 1 Day Schedule 1,  !- Name
  {9ebe5148-7fe5-43e5-b3b7-a2b4c2132d15}, !- Schedule Type Limits Name
  No,                                     !- Interpolate to Timestep
  24,                                     !- Hour 1
  0,                                      !- Minute 1
  0;                                      !- Value Until Time 1

OS:Schedule:Rule,
  {12773ebd-3c96-44b7-b165-744fea58524f}, !- Handle
  Office Misc Occ Rule 2,                 !- Name
  {b67da961-8ace-4cf7-8c48-812f7b68f20a}, !- Schedule Ruleset Name
  1,                                      !- Rule Order
  {02f27c42-5484-4cec-af59-2805569d91e2}, !- Day Schedule Name
  No,                                     !- Apply Sunday
  No,                                     !- Apply Monday
  No,                                     !- Apply Tuesday
  No,                                     !- Apply Wednesday
  No,                                     !- Apply Thursday
  No,                                     !- Apply Friday
  Yes,                                    !- Apply Saturday
  DateRange,                              !- Date Specification Type
  1,                                      !- Start Month
  1,                                      !- Start Day
  12,                                     !- End Month
  31;                                     !- End Day

OS:Schedule:Day,
  {02f27c42-5484-4cec-af59-2805569d91e2}, !- Handle
  Office Bldg Occ Rule 2 Day Schedule 1,  !- Name
  {9ebe5148-7fe5-43e5-b3b7-a2b4c2132d15}, !- Schedule Type Limits Name
  No,                                     !- Interpolate to Timestep
  6,                                      !- Hour 1
  0,                                      !- Minute 1
  0,                                      !- Value Until Time 1
  8,                                      !- Hour 2
  0,                                      !- Minute 2
  0.100000001490116,                      !- Value Until Time 2
  14,                                     !- Hour 3
  0,                                      !- Minute 3
  0.25,                                   !- Value Until Time 3
  17,                                     !- Hour 4
  0,                                      !- Minute 4
  0.100000001490116,                      !- Value Until Time 4
  24,                                     !- Hour 5
  0,                                      !- Minute 5
  0;                                      !- Value Until Time 5

OS:Schedule:Ruleset,
  {a296e34a-178b-4278-81d6-b65a6a530287}, ! Handle
  Office Activity,                        ! Name
  {d4aabac5-487f-4311-8e7e-018589e30d76}, ! Schedule Type Limits Name
  {58793135-00f0-4abc-b250-2f1213d2ceab}, ! Default Day Schedule Name
  {d4fae9c1-fa51-45c1-a90b-c60f0c77470e}, ! Summer Design Day Schedule Name
  {e9f751fa-2bc6-445a-b039-f4f992b70b9c}; ! Winter Design Day Schedule Name

OS:ScheduleTypeLimits,
  {d4aabac5-487f-4311-8e7e-018589e30d76}, !- Handle
  ActivityLevel,                          !- Name
  0,                                      !- Lower Limit Value
  ,                                       !- Upper Limit Value
  Continuous,                             !- Numeric Type
  ActivityLevel;                          !- Unit Type

OS:Schedule:Day,
  {58793135-00f0-4abc-b250-2f1213d2ceab}, !- Handle
  Office Activity Default Schedule,       !- Name
  {d4aabac5-487f-4311-8e7e-018589e30d76}, !- Schedule Type Limits Name
  No,                                     !- Interpolate to Timestep
  24,                                     !- Hour 1
  0,                                      !- Minute 1
  132;                                    !- Value Until Time 1

OS:Schedule:Day,
  {d4fae9c1-fa51-45c1-a90b-c60f0c77470e}, !- Handle
  Office Activity Summer Design Day,      !- Name
  {d4aabac5-487f-4311-8e7e-018589e30d76}, !- Schedule Type Limits Name
  No,                                     !- Interpolate to Timestep
  24,                                     !- Hour 1
  0,                                      !- Minute 1
  132;                                    !- Value Until Time 1

OS:Schedule:Day,
  {e9f751fa-2bc6-445a-b039-f4f992b70b9c}, !- Handle
  Office Activity Winter Design Day,      !- Name
  {d4aabac5-487f-4311-8e7e-018589e30d76}, !- Schedule Type Limits Name
  No,                                     !- Interpolate to Timestep
  24,                                     !- Hour 1
  0,                                      !- Minute 1
  132;                                    !- Value Until Time 1

OS:Schedule:Ruleset,
  {564d5146-f91d-4ba4-b02c-2fcc91df347b}, ! Handle
  Office Infil Quarter On,                ! Name
  {9ebe5148-7fe5-43e5-b3b7-a2b4c2132d15}, ! Schedule Type Limits Name
  {3a6ba5c4-bb81-4a37-bc50-0f9ca9c048ce}, ! Default Day Schedule Name
  {2518aa33-fb59-4aad-8084-3c4094ce2441}, ! Summer Design Day Schedule Name
  {eb6e093a-38e4-42c5-8c0d-7a14588e4243}; ! Winter Design Day Schedule Name

OS:Schedule:Day,
  {3a6ba5c4-bb81-4a37-bc50-0f9ca9c048ce}, !- Handle
  Office Infil Quarter On Default Schedule, !- Name
  {9ebe5148-7fe5-43e5-b3b7-a2b4c2132d15}, !- Schedule Type Limits Name
  No,                                     !- Interpolate to Timestep
  6,                                      !- Hour 1
  0,                                      !- Minute 1
  1,                                      !- Value Until Time 1
  22,                                     !- Hour 2
  0,                                      !- Minute 2
  0.25,                                   !- Value Until Time 2
  24,                                     !- Hour 3
  0,                                      !- Minute 3
  1;                                      !- Value Until Time 3

OS:Schedule:Day,
  {2518aa33-fb59-4aad-8084-3c4094ce2441}, !- Handle
  Office Infil Quarter On Summer Design Day, !- Name
  {9ebe5148-7fe5-43e5-b3b7-a2b4c2132d15}, !- Schedule Type Limits Name
  No,                                     !- Interpolate to Timestep
  6,                                      !- Hour 1
  0,                                      !- Minute 1
  1,                                      !- Value Until Time 1
  22,                                     !- Hour 2
  0,                                      !- Minute 2
  0.25,                                   !- Value Until Time 2
  24,                                     !- Hour 3
  0,                                      !- Minute 3
  1;                                      !- Value Until Time 3

OS:Schedule:Day,
  {eb6e093a-38e4-42c5-8c0d-7a14588e4243}, !- Handle
  Office Infil Quarter On Winter Design Day, !- Name
  {9ebe5148-7fe5-43e5-b3b7-a2b4c2132d15}, !- Schedule Type Limits Name
  No,                                     !- Interpolate to Timestep
  6,                                      !- Hour 1
  0,                                      !- Minute 1
  1,                                      !- Value Until Time 1
  18,                                     !- Hour 2
  0,                                      !- Minute 2
  0.25,                                   !- Value Until Time 2
  24,                                     !- Hour 3
  0,                                      !- Minute 3
  1;                                      !- Value Until Time 3

OS:Schedule:Rule,
  {04f72cc9-2eef-41c9-85c0-833a8333cb29}, !- Handle
  Office Infil Quarter On Rule 1,         !- Name
  {564d5146-f91d-4ba4-b02c-2fcc91df347b}, !- Schedule Ruleset Name
  0,                                      !- Rule Order